11

C          0.00000        0.00000        4.62175
C          0.01136       -1.20796        3.88999
C          0.00837       -1.20672        2.49328
C          0.00270        0.00016        1.79257
C          0.00393        1.20725        2.49362
C          0.00936        1.21117        3.89139
S         -0.00000        0.00000        0.00000
H          0.04050       -2.16379        4.39678
H          0.01740       -2.14728        1.95719
H          0.00166        2.14705        1.95596
H          0.00085        2.17275        4.38152
