30

C          3.22910        1.19653        0.70661
C          3.02074        0.08400       -0.15041
H          2.92226        0.25783       -1.20908
C          2.71191       -1.20258        0.32301
C          2.81824       -1.47128        1.67997
H          2.59653       -2.45577        2.07364
C          2.93237       -0.40730        2.56367
C          2.98192        0.93572        2.10642
C         -0.01841       -1.22035        0.69358
C          0.00000        0.00000        0.00000
C          0.13059        1.19657        0.69748
C          0.25277        1.18136        2.09504
C          0.00000        0.00000        2.79996
C         -0.17152       -1.23251        2.12278
C          0.94340        2.36040        2.78108
C          2.45275        1.94968        3.14698
H          0.95004        3.18763        2.05051
H          0.38573        2.74441        3.66125
H          2.35626        1.42893        4.12422
H          3.13519        2.78832        3.38685
C          1.99350       -2.19701       -0.59859
C          0.50430       -2.45236       -0.07967
H          2.54424       -3.15225       -0.73303
H          1.90886       -1.72694       -1.60193
H         -0.16556       -2.78712       -0.89946
H          0.62777       -3.29750        0.61603
H          0.32674        2.09701        0.12822
H          0.05869        0.04006        3.87689
H          3.53313        2.11886        0.35747
H         -0.39648       -2.10084        2.63311
