47

C         -3.64215        0.05829        2.09196
C         -3.63958        0.18970        0.69286
C         -2.43953       -0.07556        2.79559
C         -2.42464        0.08834       -0.00336
C         -1.21408       -0.02535        0.69472
C         -1.21657       -0.07176        2.10841
C          0.00000        0.00000        0.00000
C         -0.00000       -0.00000        2.81209
C          1.20280        0.18693        2.10537
C          1.19954        0.11546        0.69972
H         -4.57010        0.11948        2.64652
C         -4.91926        0.48518       -0.05833
H          2.11078        0.26108        0.13304
C         -3.65681        3.27121        0.93030
C         -3.76170        3.20334        2.32815
C         -2.38807        3.41668        0.33708
C         -2.61623        3.17731        3.12214
C         -1.22771        3.37720        1.12944
C         -1.34831        3.21557        2.52773
C          0.04781        3.40222        0.54076
C         -0.20737        2.97785        3.30120
C          1.18389        3.13063        1.31413
C          1.04922        2.84315        2.68300
H          2.14281        3.02526        0.82245
C         -4.89787        3.13019        0.08137
C         -4.89694        1.85296       -0.80813
H         -4.04487        1.88476       -1.51936
H         -5.82600        1.89708       -1.41685
C          2.16452        2.13526        3.45135
C          2.45365        0.71884        2.80828
H         -4.72900        3.10380        2.80470
H          2.87751        0.01400        3.55442
H          3.23307        0.87770        2.03161
H         -0.00573        0.06866        3.89385
H          3.09182        2.73818        3.54992
H          1.79414        1.94105        4.48139
H         -0.32473        2.74680        4.35409
H         -5.06969       -0.32858       -0.80006
H         -5.79392        0.48031        0.62797
H         -4.98443        4.03026       -0.56445
H         -2.41698        0.17690       -1.08358
H         -2.30412        3.48004       -0.74149
H         -5.80633        3.09009        0.72151
H         -2.46470       -0.10712        3.87822
H          0.01898        0.03506       -1.08289
H         -2.72392        3.05160        4.19302
H          0.15927        3.52708       -0.52953
