62

C         -1.08335       -0.16582        2.12812
C         -1.14579       -0.07792        0.72778
C          0.12338       -0.12970        2.75370
C          0.00000        0.00000        0.00000
C          1.34352        0.00789        2.03759
C          1.28601        0.02725        0.60444
C          2.57491        0.13608        2.70244
C          2.47729        0.05648       -0.13817
C          3.76483        0.04502        1.96321
C          3.70631       -0.05630        0.53364
C          5.05015        0.03227        2.56940
C          4.92351       -0.25786       -0.17225
C          6.19404       -0.10751        1.84819
C          6.12942       -0.27747        0.45547
H          0.15099       -0.24988        3.82479
H         -0.08733        0.01338       -1.07437
H          5.13739        0.11047        3.64096
H          4.89397       -0.44151       -1.23424
H          7.15398       -0.11631        2.34347
H          7.03781       -0.43817       -0.10654
C         -0.98878        3.61679        2.14346
C         -1.11127        3.40086        0.76074
C          0.23865        3.57340        2.72727
C          0.00000        3.21159        0.00000
C          1.41913        3.30864        1.98222
C          1.30662        3.18746        0.55756
C          2.66680        3.15953        2.61105
C          2.46857        3.07371       -0.22214
C          3.83007        3.20931        1.82662
C          3.71914        3.24056        0.39694
C          5.13558        3.26255        2.38442
C          4.90462        3.43431       -0.36171
C          6.25000        3.38976        1.61536
C          6.13169        3.50480        0.22044
H          0.32129        3.79428        3.77977
H         -0.12812        3.10904       -1.06561
H          5.26006        3.23897        3.45508
H          4.82850        3.58036       -1.42752
H          7.01532        3.66420       -0.38026
H         -1.99424       -0.27615        2.69834
H         -2.10602       -0.09977        0.23320
H         -1.86933        3.82885        2.73233
H         -2.08969        3.41854        0.30328
H          7.22711        3.43565        2.07377
C          2.57674        0.38373        4.18876
C          1.92949        1.71985        4.57994
C          2.71229        2.95262        4.10350
H          1.87256        1.75825        5.67202
H          0.91560        1.75760        4.18714
H          2.03435       -0.42314        4.69055
H          3.58798        0.37195        4.58783
H          3.73829        2.84432        4.44740
H          2.30162        3.83625        4.60278
C          2.47914        0.21637       -1.63669
C          3.15980        1.50828       -2.11091
C          2.41842        2.78941       -1.70152
H          1.39043        2.70112       -2.04477
H          2.86196        3.63115       -2.24301
H          1.46656        0.20776       -2.03239
H          2.99885       -0.63329       -2.08964
H          3.20610        1.48083       -3.20401
H          4.17816        1.54016       -1.72952
